opendss_networks/LV15_137bus/lines.dss
new line.L_19 lineCode=ugsc_16cu_xlpe/nyl/pvc_ug_4w_bundled bus1=B1123 bus2=B2021 length=0.0181083850193 units=km phases=4
new line.L_42 lineCode=ugsc_16cu_xlpe/nyl/pvc_ug_4w_bundled bus1=B436 bus2=B3268 length=0.0178446762865 units=km phases=4
new line.L_112 lineCode=ugsc_16cu_xlpe/nyl/pvc_ug_4w_bundled bus1=B3108 bus2=B3090 length=0.00975518782151 units=km phases=4
new line.L_115 lineCode=ughv_400al_triplex_ug_4w_bundled bus1=B1049 bus2=B127 length=0.00276625986210 units=km phases=4
new line.L_196 lineCode=ughv_400al_triplex_ug_4w_bundled bus1=B1696 bus2=B940 length=0.000244629175463 units=km phases=4
new line.L_200 lineCode=ugsc_16cu_xlpe/nyl/pvc_ug_4w_bundled bus1=B1371 bus2=B2413 length=0.00975925174755 units=km phases=4
new line.L_261 lineCode=ugsc_16cu_xlpe/nyl/pvc_ug_4w_bundled bus1=B1675 bus2=B702 length=0.0217442956607 units=km phases=4
new line.L_282 lineCode=uglv_240al_xlpe/nyl/pvc_ug_4w_bundled bus1=B1113 bus2=B54 length=0.0561553052424 units=km phases=4
new line.L_287 lineCode=ugsc_16cu_xlpe/nyl/pvc_ug_4w_bundled bus1=B654 bus2=B2422 length=0.00955763537009 units=km phases=4
new line.L_324 lineCode=ugsc_16cu_xlpe/nyl/pvc_ug_4w_bundled bus1=B63 bus2=B1889 length=0.0118474344698 units=km phases=4
new line.L_398 lineCode=ugsc_16cu_xlpe/nyl/pvc_ug_4w_bundled bus1=B2378 bus2=B436 length=0.00970548418878 units=km phases=4
new line.L_423 lineCode=ugsc_16cu_xlpe/nyl/pvc_ug_4w_bundled bus1=B222 bus2=B1901 length=0.0182724798000 units=km phases=4
new line.L_506 lineCode=ugsc_16cu_xlpe/nyl/pvc_ug_4w_bundled bus1=B691 bus2=B308 length=0.0506089034986 units=km phases=4
new line.L_516 lineCode=ugsc_16cu_xlpe/nyl/pvc_ug_4w_bundled bus1=B1381 bus2=B32 length=0.0102200656399 units=km phases=4
new line.L_568 lineCode=uglv_240al_xlpe/nyl/pvc_ug_4w_bundled bus1=B222 bus2=B702 length=0.0380009749194 units=km phases=4
new line.L_593 lineCode=ughv_400al_triplex_ug_4w_bundled bus1=B921 bus2=B138 length=0.000255875216680 units=km phases=4
new line.L_712 lineCode=ugsc_16cu_xlpe/nyl/pvc_ug_4w_bundled bus1=B949 bus2=B1811 length=0.00976023425054 units=km phases=4
new line.L_798 lineCode=ugsc_16cu_xlpe/nyl/pvc_ug_4w_bundled bus1=B2466 bus2=B1113 length=0.0146119880434 units=km phases=4
new line.L_815 lineCode=ugsc_16cu_xlpe/nyl/pvc_ug_4w_bundled bus1=B1206 bus2=B3108 length=0.0145622779709 units=km phases=4
new line.L_839 lineCode=ugsc_16cu_xlpe/nyl/pvc_ug_4w_bundled bus1=B1901 bus2=B358 length=0.00590023234338 units=km phases=4
new line.L_847 lineCode=ughv_400al_triplex_ug_4w_bundled bus1=B1696 bus2=B2185 length=0.000320903132453 units=km phases=4
new line.L_887 lineCode=ugsc_16cu_xlpe/nyl/pvc_ug_4w_bundled bus1=B3268 bus2=B48 length=0.00566182345583 units=km phases=4
new line.L_892 lineCode=ugsc_16cu_xlpe/nyl/pvc_ug_4w_bundled bus1=B88 bus2=B644 length=0.0482119559156 units=km phases=4
new line.L_923 lineCode=ugsc_16cu_xlpe/nyl/pvc_ug_4w_bundled bus1=B1897 bus2=B1389 length=0.311289092227 units=km phases=4
new line.L_932 lineCode=ugsc_16cu_xlpe/nyl/pvc_ug_4w_bundled bus1=B3081 bus2=B16 length=0.0178377747344 units=km phases=4
new line.L_968 lineCode=ugsc_16cu_xlpe/nyl/pvc_ug_4w_bundled bus1=B33 bus2=B323 length=0.00572641585861 units=km phases=4
new line.L_972 lineCode=ugsc_16cu_xlpe/nyl/pvc_ug_4w_bundled bus1=B2532 bus2=B702 length=0.0115221227429 units=km phases=4
new line.L_1026 lineCode=ugsc_16cu_xlpe/nyl/pvc_ug_4w_bundled bus1=B1291 bus2=B3268 length=0.00960962838722 units=km phases=4
new line.L_1071 lineCode=ugsc_16cu_xlpe/nyl/pvc_ug_4w_bundled bus1=B1451 bus2=B2422 length=0.0141798049451 units=km phases=4
new line.L_1158 lineCode=ugsc_16cu_xlpe/nyl/pvc_ug_4w_bundled bus1=B488 bus2=B2940 length=0.00967864442171 units=km phases=4
new line.L_1159 lineCode=ugsc_16cu_xlpe/nyl/pvc_ug_4w_bundled bus1=B1472 bus2=B945 length=0.0194171404625 units=km phases=4
new line.L_1184 lineCode=uglv_240al_xlpe/nyl/pvc_ug_4w_bundled bus1=B3273 bus2=B2374 length=0.0721059894430 units=km phases=4
new line.L_1205 lineCode=ugsc_16cu_xlpe/nyl/pvc_ug_4w_bundled bus1=B1744 bus2=B996 length=0.00579530553674 units=km phases=4
new line.L_1221 lineCode=ughv_400al_triplex_ug_4w_bundled bus1=B1183 bus2=B945 length=0.000800000000000 units=km phases=4
new line.L_1226 lineCode=ugsc_16cu_xlpe/nyl/pvc_ug_4w_bundled bus1=B2196 bus2=B876 length=0.0506848515217 units=km phases=4
new line.L_1228 lineCode=ugsc_16cu_xlpe/nyl/pvc_ug_4w_bundled bus1=B2459 bus2=B2048 length=0.0489303780491 units=km phases=4
new line.L_1234 lineCode=ugsc_16cu_xlpe/nyl/pvc_ug_4w_bundled bus1=B1390 bus2=B252 length=0.00723725613094 units=km phases=4
new line.L_1237 lineCode=ugsc_16cu_xlpe/nyl/pvc_ug_4w_bundled bus1=B1345 bus2=B2374 length=0.0374271618272 units=km phases=4
new line.L_1259 lineCode=ugsc_16cu_xlpe/nyl/pvc_ug_4w_bundled bus1=B63 bus2=B2251 length=0.0337767704447 units=km phases=4
new line.L_1347 lineCode=ugsc_16cu_xlpe/nyl/pvc_ug_4w_bundled bus1=B313 bus2=B2525 length=0.0562882656746 units=km phases=4
new line.L_1349 lineCode=ugsc_16cu_xlpe/nyl/pvc_ug_4w_bundled bus1=B1990 bus2=B2107 length=0.0509397175105 units=km phases=4
new line.L_1365 lineCode=ugsc_16cu_xlpe/nyl/pvc_ug_4w_bundled bus1=B3108 bus2=B2422 length=0.0143331517170 units=km phases=4
new line.L_1402 lineCode=ugsc_16cu_xlpe/nyl/pvc_ug_4w_bundled bus1=B32 bus2=B1021 length=0.0293048630524 units=km phases=4
new line.L_1534 lineCode=ugsc_16cu_xlpe/nyl/pvc_ug_4w_bundled bus1=B3091 bus2=B1811 length=0.0101413972027 units=km phases=4
new line.L_1647 lineCode=uglv_240al_xlpe/nyl/pvc_ug_4w_bundled bus1=B54 bus2=B1390 length=0.0363512137173 units=km phases=4
new line.L_1651 lineCode=uglv_240al_xlpe/nyl/pvc_ug_4w_bundled bus1=B702 bus2=B3081 length=0.0194205893534 units=km phases=4
new line.L_1688 lineCode=uglv_240al_xlpe/nyl/pvc_ug_4w_bundled bus1=B3108 bus2=B3273 length=0.0416720658717 units=km phases=4
new line.L_1697 lineCode=ugsc_16cu_xlpe/nyl/pvc_ug_4w_bundled bus1=B2478 bus2=B1390 length=0.0196165337678 units=km phases=4
new line.L_1855 lineCode=ugsc_16cu_xlpe/nyl/pvc_ug_4w_bundled bus1=B2021 bus2=B88 length=0.0555305973823 units=km phases=4
new line.L_1887 lineCode=uglv_240al_xlpe/nyl/pvc_ug_4w_bundled bus1=B32 bus2=B1460 length=0.0391892909708 units=km phases=4
new line.L_1896 lineCode=ugsc_16cu_xlpe/nyl/pvc_ug_4w_bundled bus1=B2721 bus2=B436 length=0.00969430661718 units=km phases=4
new line.L_1914 lineCode=ugsc_16cu_xlpe/nyl/pvc_ug_4w_bundled bus1=B3033 bus2=B1744 length=0.0103621727638 units=km phases=4
new line.L_1924 lineCode=ugsc_16cu_xlpe/nyl/pvc_ug_4w_bundled bus1=B601 bus2=B1093 length=0.198864117806 units=km phases=4
new line.L_1969 lineCode=ugsc_16cu_xlpe/nyl/pvc_ug_4w_bundled bus1=B2311 bus2=B1551 length=0.0494497761435 units=km phases=4
new line.L_2046 lineCode=uglv_240al_xlpe/nyl/pvc_ug_4w_bundled bus1=B1389 bus2=B606 length=0.0217776795254 units=km phases=4
new line.L_2055 lineCode=uglv_240al_xlpe/nyl/pvc_ug_4w_bundled bus1=B436 bus2=B33 length=0.0363424824338 units=km phases=4
new line.L_2090 lineCode=ugsc_16cu_xlpe/nyl/pvc_ug_4w_bundled bus1=B2743 bus2=B313 length=0.0559888574598 units=km phases=4
new line.L_2137 lineCode=uglv_240al_xlpe/nyl/pvc_ug_4w_bundled bus1=B3108 bus2=B1744 length=0.0544982707617 units=km phases=4
new line.L_2140 lineCode=ughv_400al_triplex_ug_4w_bundled bus1=B1696 bus2=B3229 length=0.000353824687859 units=km phases=4
new line.L_2147 lineCode=ugsc_16cu_xlpe/nyl/pvc_ug_4w_bundled bus1=B2357 bus2=B32 length=0.0105256334380 units=km phases=4
new line.L_2157 lineCode=uglv_240al_xlpe/nyl/pvc_ug_4w_bundled bus1=B1120 bus2=B1114 length=0.0384287798600 units=km phases=4
new line.L_2230 lineCode=ugsc_16cu_xlpe/nyl/pvc_ug_4w_bundled bus1=B66 bus2=B2787 length=0.00980412440090 units=km phases=4
new line.L_2269 lineCode=ugsc_16cu_xlpe/nyl/pvc_ug_4w_bundled bus1=B2374 bus2=B525 length=0.0590416385687 units=km phases=4
new line.L_2305 lineCode=ugsc_16cu_xlpe/nyl/pvc_ug_4w_bundled bus1=B458 bus2=B1075 length=0.0100154846962 units=km phases=4
new line.L_2318 lineCode=ugsc_16cu_xlpe/nyl/pvc_ug_4w_bundled bus1=B54 bus2=B443 length=0.0204762873418 units=km phases=4
new line.L_2366 lineCode=ugsc_16cu_xlpe/nyl/pvc_ug_4w_bundled bus1=B384 bus2=B2413 length=0.00724385833497 units=km phases=4
new line.L_2408 lineCode=uglv_240al_xlpe/nyl/pvc_ug_4w_bundled bus1=B565 bus2=B1093 length=0.0776329708155 units=km phases=4
new line.L_2421 lineCode=ughv_400al_triplex_ug_4w_bundled bus1=B921 bus2=B2839 length=0.000353824695522 units=km phases=4
new line.L_2439 lineCode=ugsc_16cu_xlpe/nyl/pvc_ug_4w_bundled bus1=B1677 bus2=B1390 length=0.0133488972109 units=km phases=4
new line.L_2450 lineCode=ugsc_16cu_xlpe/nyl/pvc_ug_4w_bundled bus1=B3081 bus2=B1075 length=0.0363073581198 units=km phases=4
new line.L_2454 lineCode=ugsc_16cu_xlpe/nyl/pvc_ug_4w_bundled bus1=B1048 bus2=B1990 length=0.0487790350955 units=km phases=4
new line.L_2462 lineCode=ugsc_16cu_xlpe/nyl/pvc_ug_4w_bundled bus1=B1836 bus2=B1901 length=0.00949325269555 units=km phases=4
new line.L_2465 lineCode=ugsc_16cu_xlpe/nyl/pvc_ug_4w_bundled bus1=B1113 bus2=B2516 length=0.0160031670276 units=km phases=4
new line.L_2471 lineCode=ugsc_16cu_xlpe/nyl/pvc_ug_4w_bundled bus1=B1389 bus2=B2459 length=0.0178810933333 units=km phases=4
new line.L_2498 lineCode=ugsc_16cu_xlpe/nyl/pvc_ug_4w_bundled bus1=B1066 bus2=B2940 length=0.00975023451942 units=km phases=4
new line.L_2515 lineCode=uglv_240al_xlpe/nyl/pvc_ug_4w_bundled bus1=B1065 bus2=B565 length=0.0330342076899 units=km phases=4
new line.L_2533 lineCode=ugsc_16cu_xlpe/nyl/pvc_ug_4w_bundled bus1=B3189 bus2=B222 length=0.00717707709620 units=km phases=4
new line.L_2543 lineCode=ugsc_16cu_xlpe/nyl/pvc_ug_4w_bundled bus1=B1744 bus2=B2787 length=0.0161888347779 units=km phases=4
new line.L_2558 lineCode=ugsc_16cu_xlpe/nyl/pvc_ug_4w_bundled bus1=B2567 bus2=B2516 length=0.0108623581673 units=km phases=4
new line.L_2569 lineCode=ugsc_16cu_xlpe/nyl/pvc_ug_4w_bundled bus1=B644 bus2=B652 length=0.0377055020955 units=km phases=4
new line.L_2586 lineCode=ugsc_16cu_xlpe/nyl/pvc_ug_4w_bundled bus1=B875 bus2=B1123 length=0.0428683905230 units=km phases=4
new line.L_2607 lineCode=uglv_240al_xlpe/nyl/pvc_ug_4w_bundled bus1=B702 bus2=B1113 length=0.0698174756424 units=km phases=4
new line.L_2623 lineCode=uglv_240al_xlpe/nyl/pvc_ug_4w_bundled bus1=B33 bus2=B2413 length=0.0363905114557 units=km phases=4
new line.L_2629 lineCode=ugsc_16cu_xlpe/nyl/pvc_ug_4w_bundled bus1=B2924 bus2=B3108 length=0.0337494106853 units=km phases=4
new line.L_2658 lineCode=ugsc_16cu_xlpe/nyl/pvc_ug_4w_bundled bus1=B663 bus2=B3268 length=0.0102587581056 units=km phases=4
new line.L_2697 lineCode=ughv_400al_triplex_ug_4w_bundled bus1=B2413 bus2=B2777 length=0.000800000000000 units=km phases=4
new line.L_2765 lineCode=ugsc_16cu_xlpe/nyl/pvc_ug_4w_bundled bus1=B1049 bus2=B2196 length=0.0425223362973 units=km phases=4
new line.L_2845 lineCode=ugsc_16cu_xlpe/nyl/pvc_ug_4w_bundled bus1=B2413 bus2=B2447 length=0.0113925276952 units=km phases=4
new line.L_2923 lineCode=ugsc_16cu_xlpe/nyl/pvc_ug_4w_bundled bus1=B3223 bus2=B1744 length=0.0103806230913 units=km phases=4
new line.L_2973 lineCode=uglv_240al_xlpe/nyl/pvc_ug_4w_bundled bus1=B3108 bus2=B222 length=0.0545494707461 units=km phases=4
new line.L_3035 lineCode=uglv_240al_xlpe/nyl/pvc_ug_4w_bundled bus1=B1390 bus2=B1551 length=0.0234910145000 units=km phases=4
new line.L_3100 lineCode=ugsc_16cu_xlpe/nyl/pvc_ug_4w_bundled bus1=B1146 bus2=B1551 length=0.0227049906486 units=km phases=4
new line.L_3137 lineCode=ugsc_16cu_xlpe/nyl/pvc_ug_4w_bundled bus1=B2760 bus2=B54 length=0.00948661596439 units=km phases=4
new line.L_3174 lineCode=ughv_400al_triplex_ug_4w_bundled bus1=B1218 bus2=B2624 length=6.69200664901e-05 units=km phases=4
new line.L_3202 lineCode=uglv_240al_xlpe/nyl/pvc_ug_4w_bundled bus1=B1744 bus2=B32 length=0.0390421424220 units=km phases=4
new line.L_3256 lineCode=ughv_400al_triplex_ug_4w_bundled bus1=B620 bus2=B711 length=6.69200664901e-05 units=km phases=4
new line.L_3258 lineCode=uglv_240al_xlpe/nyl/pvc_ug_4w_bundled bus1=B1120 bus2=B2346 length=0.0311442125514 units=km phases=4
new line.L_3414 lineCode=ugsc_16cu_xlpe/nyl/pvc_ug_4w_bundled bus1=B2876 bus2=B33 length=0.00971882294587 units=km phases=4
new line.L_3449 lineCode=ugsc_16cu_xlpe/nyl/pvc_ug_4w_bundled bus1=B109 bus2=B63 length=0.123760854332 units=km phases=4
new line.L_3516 lineCode=ugsc_16cu_xlpe/nyl/pvc_ug_4w_bundled bus1=B652 bus2=B2743 length=0.0439056547591 units=km phases=4
new line.L_3536 lineCode=uglv_240al_xlpe/nyl/pvc_ug_4w_bundled bus1=B1389 bus2=B63 length=0.0718335911490 units=km phases=4
new line.L_3582 lineCode=ugsc_16cu_xlpe/nyl/pvc_ug_4w_bundled bus1=B3273 bus2=B2299 length=0.0259285435275 units=km phases=4
new line.L_3583 lineCode=ugsc_16cu_xlpe/nyl/pvc_ug_4w_bundled bus1=B3166 bus2=B1336 length=0.00995684528717 units=km phases=4
new line.L_3638 lineCode=uglv_240al_xlpe/nyl/pvc_ug_4w_bundled bus1=B3273 bus2=B1120 length=0.149595365558 units=km phases=4
new line.L_3677 lineCode=ughv_400al_triplex_ug_4w_bundled bus1=B2196 bus2=B2002 length=0.00301202894219 units=km phases=4
new line.L_3776 lineCode=ugsc_16cu_xlpe/nyl/pvc_ug_4w_bundled bus1=B1596 bus2=B33 length=0.00969430483370 units=km phases=4
new line.L_3867 lineCode=ugsc_16cu_xlpe/nyl/pvc_ug_4w_bundled bus1=B2648 bus2=B3081 length=0.00924170460772 units=km phases=4
new line.L_3892 lineCode=ugsc_16cu_xlpe/nyl/pvc_ug_4w_bundled bus1=B2516 bus2=B3049 length=0.0149792620887 units=km phases=4
new line.L_4009 lineCode=ugsc_16cu_xlpe/nyl/pvc_ug_4w_bundled bus1=B2413 bus2=B1336 length=0.0167764486056 units=km phases=4
new line.L_4020 lineCode=ugsc_16cu_xlpe/nyl/pvc_ug_4w_bundled bus1=B33 bus2=B1811 length=0.0172714078845 units=km phases=4
new line.L_4097 lineCode=uglv_240al_xlpe/nyl/pvc_ug_4w_bundled bus1=B1551 bus2=B945 length=0.0156146948741 units=km phases=4
new line.L_4135 lineCode=ugsc_16cu_xlpe/nyl/pvc_ug_4w_bundled bus1=B2509 bus2=B2787 length=0.00960241586012 units=km phases=4
new line.L_4157 lineCode=uglv_240al_xlpe/nyl/pvc_ug_4w_bundled bus1=B63 bus2=B565 length=0.000794243741521 units=km phases=4
new line.L_4219 lineCode=ughv_400al_triplex_ug_4w_bundled bus1=B876 bus2=B2933 length=0.00299460203735 units=km phases=4
new line.L_4236 lineCode=ugsc_16cu_xlpe/nyl/pvc_ug_4w_bundled bus1=B980 bus2=B1075 length=0.00725582512903 units=km phases=4
new line.L_4261 lineCode=ugsc_16cu_xlpe/nyl/pvc_ug_4w_bundled bus1=B2636 bus2=B1113 length=0.0290446825725 units=km phases=4
new line.L_4281 lineCode=ugsc_16cu_xlpe/nyl/pvc_ug_4w_bundled bus1=B2569 bus2=B2251 length=0.0182838639462 units=km phases=4
new line.L_4362 lineCode=ughv_400al_triplex_ug_4w_bundled bus1=B1696 bus2=B3124 length=0.000533135857936 units=km phases=4
new line.L_4378 lineCode=ugsc_16cu_xlpe/nyl/pvc_ug_4w_bundled bus1=B32 bus2=B2940 length=0.0148766440112 units=km phases=4
new line.L_4380 lineCode=ughv_400al_triplex_ug_4w_bundled bus1=B2048 bus2=B2379 length=0.00299893138362 units=km phases=4
new line.L_4427 lineCode=ugsc_16cu_xlpe/nyl/pvc_ug_4w_bundled bus1=B1514 bus2=B3081 length=0.00990758952279 units=km phases=4
new line.L_4501 lineCode=ugsc_16cu_xlpe/nyl/pvc_ug_4w_bundled bus1=B2299 bus2=B1048 length=0.0488333569543 units=km phases=4
new line.L_4511 lineCode=ugsc_16cu_xlpe/nyl/pvc_ug_4w_bundled bus1=B1889 bus2=B875 length=0.0231347233474 units=km phases=4
new line.L_4549 lineCode=ugsc_16cu_xlpe/nyl/pvc_ug_4w_bundled bus1=B2107 bus2=B691 length=0.0501952171075 units=km phases=4
new line.L_4556 lineCode=ugsc_16cu_xlpe/nyl/pvc_ug_4w_bundled bus1=B1170 bus2=B54 length=0.0105107125697 units=km phases=4
new line.L_4557 lineCode=ughv_400al_triplex_ug_4w_bundled bus1=B1049 bus2=B1660 length=0.00254167224795 units=km phases=4
new line.L_4588 lineCode=uglv_240al_xlpe/nyl/pvc_ug_4w_bundled bus1=B702 bus2=B436 length=0.0566680262339 units=km phases=4
new line.L_4629 lineCode=ughv_400al_triplex_ug_4w_bundled bus1=B2276 bus2=B1696 length=0.000255748683198 units=km phases=4
new line.L_4681 lineCode=ugsc_16cu_xlpe/nyl/pvc_ug_4w_bundled bus1=B876 bus2=B2459 length=0.0502707921775 units=km phases=4
